tests/data/power_flow/floating-ground-no-error/nrse/delta-wye_n/asym_output.json
{
  "version": "1.0",
  "type": "asym_output",
  "is_batch": false,
  "attributes": {},
  "data": {
    "node": [
      {"id": 1, "energized": 1, "u_pu": [0.99999999999992251, 0.99999999999992251, 0.99999999999992251], "u": [5773.5026918958101, 5773.5026918958101, 5773.5026918958101], "u_angle": [6.3296256469447942e-14, -2.0943951023931322, 2.0943951023932588], "p": [3.3332500041435393, 3.3332500041126596, 3.3332500041243667], "q": [33.165418788836249, 33.165418788872792, 33.165418788742407]},
      {"id": 2, "energized": 1, "u_pu": [0.9999500024997976, 0.99995000249979771, 0.99995000249979749], "u": [57.732140311942509, 57.732140311942516, 57.732140311942501], "u_angle": [-0.52359877559823542, -2.6179938779914309, 1.5707963267949601], "p": [-2.4789040786828292e-12, -4.9578081573761396e-12, 2.7754187906233796e-11], "q": [-4.1299171686348346e-11, 8.2598343372696058e-11, -3.7005583874973505e-11]}
    ],
    "transformer": [
      {"id": 4, "energized": 1, "loading": 0.00099997500124996796, "p_from": [3.3332500041435393, 3.3332500041126596, 3.3332500041243667], "q_from": [33.165418788836249, 33.165418788872792, 33.165418788742407], "i_from": [0.0057733583615496827, 0.0057733583615554463, 0.0057733583615331785], "s_from": [33.332500041686274, 33.332500041719548, 33.332500041590983], "p_to": [-2.4789040786828292e-12, -4.9578081573761396e-12, 2.7754187906233796e-11], "q_to": [-4.1299171686348346e-11, 8.2598343372696058e-11, -3.7005583874973505e-11], "i_to": [7.1664588082487635e-13, 1.4332917616497527e-12, 8.012344526598183e-13], "s_to": [4.1373500545757385e-11, 8.2747001091514797e-11, 4.6256979843719079e-11]}
    ],
    "source": [
      {"id": 3, "energized": 1, "p": [3.3332500041435393, 3.3332500041126596, 3.3332500041243667], "q": [33.165418788836249, 33.165418788872792, 33.165418788742414], "i": [0.0057733583615496827, 0.0057733583615554454, 0.0057733583615331794], "s": [33.332500041686274, 33.332500041719541, 33.33250004159099], "pf": [0.099999999999247344, 0.099999999998221123, 0.099999999998958006]}
    ],
    "asym_load": [
      {"id": 21, "energized": 0, "p": [-0, -0, -0], "q": [-0, -0, -0], "i": [0, 0, 0], "s": [0, 0, 0], "pf": [0, 0, 0]}
    ]
  }
}